
This module defines a text-indentation function ``text_indentation(text)``.

Solve
=====

Text is printed with two new lines after each of the characters ``.``, ``?``,
and ``:``.

::

    >>> text_indentation = __import__('5-text_indentation').text_indentation
    >>> text_indentation("Hello, World!")
    Hello, World!
    <BLANKLINE>

No spaces are printed at the beginning of a line.

::

    >>> text_indentation("   Hi Ama.")
    Hi Ama.
    <BLANKLINE>

::

    >>> text_indentation("          ")

Addition, no spaces are printed at the end of each printed line.

::

    >>> text_indentation("Hi.   ")
    Hi.
    <BLANKLINE>

::

    >>> text_indentation("    Woow now.    This is messi.   ")
    Woow now.
    <BLANKLINE>
    This is messi.
    <BLANKLINE>

New lines are only printed for the characters ``.``, ``?``, and ``:`` -
text not ending with one of these characters is not ended with a new line.

::

    >>> text_indentation("No time to waste, what a good sentence")
    No time to waste, what a good sentance

New lines within a string are printed as normal.

::

    >>> text_indentation("Let's print a new-name! Here you go:\nPrint.")
    Let's print a new-name! Here you go:
    <BLANKLINE>
    <BLANKLINE>
    Printed.
    <BLANKLINE>

::

    >>> text_indentation("\n\n\n We printed three new lines.")
    <BLANKLINE>
    <BLANKLINE>
    <BLANKLINE>
    We printed three new lines.
    <BLANKLINE>

::
    >>> text_indentation("A snake \n new line.")
    A snake 
    new line.
    <BLANKLINE>

A jumbo example:

::

    >>> text_indentation("Lorem ipsum dolor sit amet, consectetur adipiscing "
    ... "elit. Quonam modo? Utrum igitur tibi litteram videor an totas paginas "
    ... "commovere? Non autem hoc: igitur ne illud quidem. Fortasse id optimum, "
    ... "sed ubi illud: Plus semper voluptatis? Teneo, inquit, finem illi videri "
    ... "nihil dolere. Transfer idem ad modestiam vel temperantiam, quae est "
    ... "moderatio cupiditatum rationi oboediens. Si id dicis, vicimus. Inde "
    ... "sermone vario sex illa a Dipylo stadia confecimus. Sin aliud quid "
    ... "voles, postea. Quae animi affectio suum cuique tribuens atque hanc, "
    ... "quam dico. Utinam quidem dicerent alium alio beatiorem! Iam ruinas "
    ... "videres") # doctest: +NORMALIZE_WHITESPACE
    Lorem ipsum dolor sit amet, consectetur adipiscing elit.
    <BLANKLINE>
    Quonam modo?
    <BLANKLINE>
    Utrum igitur tibi litteram videor an totas paginas commovere?
    <BLANKLINE>
    Non autem hoc:
    <BLANKLINE>
    igitur ne illud quidem.
    <BLANKLINE>
    Fortasse id optimum, sed ubi illud:
    <BLANKLINE>
    Plus semper voluptatis?
    <BLANKLINE>
    Teneo, inquit, finem illi videri nihil dolere.
    <BLANKLINE>
    Transfer idem ad modestiam vel temperantiam, 
    quae est moderatio cupiditatum rationi oboediens.
    <BLANKLINE>
    Si id dicis, vicimus.
    <BLANKLINE>
    Inde sermone vario sex illa a Dipylo stadia confecimus.
    <BLANKLINE>
    Sin aliud quid voles, postea.
    <BLANKLINE>
    Quae animi affectio suum cuique tribuens atque hanc, quam dico.
    <BLANKLINE>
    Utinam quidem dicerent alium alio beatiorem! Iam ruinas videres

 Text Errors
============

The paramter ``text`` must be a string. Otherwise, a TypeError is raised.

::

    >>> text_indentation(10)
    Traceback (most recent call last):
    TypeError: text must be a string

::

    >>> text_indentation({"two": 2, "three": 3})
    Traceback (most recent call last):
    TypeError: text must be a string

::

    >>> text_indentation(None)
    Traceback (most recent call last):
    TypeError: text must be a string
